FoamFile
{
	version	2.0;
	format	binary;
	class	volScalarField;
	location	"0";
	object	p;
	arch	"LSB;label=32;scalar=64";
}
dimensions	[0 2 -2 0 0 0 0];
internalField	uniform 0;
boundaryField
{
	top
	{
		type	zeroGradient;
	}
	bottom
	{
		type	zeroGradient;
	}
	symmetry
	{
		type	totalPressure;
		p0	uniform 0;
		gamma	0;
	}
	right
	{
		type	zeroGradient;
	}
	outlet
	{
		type	fixedValue;
		value	uniform 0;
	}
	inlet
	{
		type	zeroGradient;
	}
	coral_gen
	{
		type	zeroGradient;
	}
}
